** written by FreeCAD inp file writer for CalculiX,Abaqus meshes
** highest dimension mesh elements only.

** Nodes
*Node, NSET=Nall
1, 63.04922804949, 10.4338526812, 0
2, 63.04922804949, 10.4338526812, 1.01
3, 51.95301143195, 37.06459575714, 0
4, 51.95301143195, 37.06459575714, 1.01
5, 49.18378338245, 35.91074307594, 0
6, 49.18378338245, 35.91074307594, 1.01
7, 60.28, 9.28, 0
8, 60.28, 9.28, 1.01
9, 65, 0, 0
10, 65, 0, 1
11, -38.04, -50.76, 0
12, -38.04, -51.46, 0
13, -35.78, -48.5, 0
14, -37.31, -52.19, 0
15, -8.99, -59.6, 0
16, -10.52, -63.29, 0
17, -8.990000000004, -62.79, 0
18, -9.49, -63.29, 0
19, -40.64999999999, -42.94, 0
20, -39.80000000001, -43.25999999999, 0
** ... 13183 like lines cut


** Volume elements
*Element, TYPE=C3D10, ELSET=Evolumes
69, 408, 430, 2270, 9635, 2283, 2284, 2282, 9637, 9636, 9638
70, 2239, 421, 399, 9635, 2255, 2254, 2252, 9640, 9639, 9641
71, 423, 431, 2240, 2271, 2235, 9642, 2264, 9643, 2289, 9644
72, 409, 2271, 401, 2240, 2286, 9645, 2225, 9646, 9644, 2257
73, 4, 402, 2269, 2242, 2221, 9647, 2277, 9648, 2249, 9649
74, 2268, 430, 7, 8, 2280, 2231, 9650, 2274, 434, 420
75, 424, 2242, 5, 6, 2250, 2248, 429, 2229, 9651, 417
76, 2239, 421, 431, 422, 2255, 2233, 9652, 2259, 426, 2234
77, 400, 409, 401, 2240, 2223, 2225, 405, 2256, 9646, 2257
78, 423, 2240, 431, 422, 2264, 9642, 2235, 427, 2260, 2234
79, 4, 2269, 402, 411, 2277, 9647, 2221, 416, 2278, 2222
80, 3, 402, 4, 2242, 407, 2221, 398, 2247, 2249, 9648
81, 408, 2270, 409, 399, 2282, 2281, 413, 2220, 9653, 2224
82, 432, 431, 423, 2271, 436, 2235, 2236, 2292, 2289, 9643
83, 409, 401, 2271, 410, 2225, 9645, 2286, 414, 2227, 2285
84, 410, 2241, 402, 401, 9654, 2262, 2226, 2227, 2261, 406
85, 432, 424, 2241, 423, 2237, 2267, 9655, 2236, 428, 2265
86, 2243, 408, 1, 399, 9656, 2219, 2245, 2246, 2220, 403
87, 399, 2270, 2239, 9635, 9653, 9657, 2252, 9641, 9638, 9640
88, 399, 408, 2270, 9635, 2220, 2282, 9653, 9641, 9637, 9638
** ... 5908 like lines cut

** Define element set Eall
*ELSET, ELSET=Eall
Evolumes



***********************************************************
** Element sets for materials and FEM element type (solid, shell, beam, fluid)
** written by write_element_sets_material_and_femelement_type function
*ELSET,ELSET=MaterialSolidSolid
134,
135,
136,
137,
138,
139,
140,
141,
142,
143,
144,
145,
146,
147,
148,
149,
150,
151,
152,
153,
** ... 5843 like lines cut
*ELSET,ELSET=MaterialSolid001Solid
69,
70,
71,
72,
73,
74,
75,
76,
77,
78,
79,
80,
81,
82,
83,
84,
85,
86,
87,
88,
** ... 45 like lines cut

***********************************************************
** constraints displacement node sets
** written by write_node_sets_constraints_displacement function
** ConstraintDisplacement
*NSET,NSET=ConstraintDisplacement
155,
348,
1172,
1173,
1174,
1175,
1176,
1177,
1178,
1179,
1180,
1181,
1182,
1183,
1184,
1185,
1186,
1187,
1188,
1189,
** ... 124 like lines cut

***********************************************************
** constraints contact surface sets
** written by write_surfaces_constraints_contact function
** ConstraintContact
*SURFACE, NAME=DEPConstraintContact
77,S1
79,S4
80,S1
81,S4
83,S2
84,S4
86,S3
111,S2
116,S3
122,S2
*SURFACE, NAME=INDConstraintContact
874,S2
2393,S1
2474,S4
3050,S1
3051,S3
3077,S4
3078,S4
3107,S2
3108,S3
5845,S2

***********************************************************
** constraints transform node sets
** written by write_node_sets_constraints_transform function
** ConstraintTransform
*NSET,NSET=CylinConstraintTransform
155,
348,
1172,
1173,
1174,
1175,
1176,
1177,
1178,
1179,
1180,
1181,
1182,
1183,
1184,
1185,
1186,
1187,
1188,
1189,
** ... 124 like lines cut

***********************************************************
** Materials
** written by write_materials function
** Young's modulus unit is MPa = N/mm2
** FreeCAD material name: Elektroblech
*MATERIAL, NAME=MaterialSolid
*ELASTIC
216500, 0.300
*DENSITY
7.6e-09
** FreeCAD material name: Magnet Neodym
*MATERIAL, NAME=MaterialSolid001
*ELASTIC
79000, 0.310
*DENSITY
7.0e-09

***********************************************************
** Sections
** written by write_femelementsets function
*SOLID SECTION, ELSET=MaterialSolidSolid, MATERIAL=MaterialSolid
*SOLID SECTION, ELSET=MaterialSolid001Solid, MATERIAL=MaterialSolid001

***********************************************************
** Contact Constraints
** written by write_constraints_contact function
** ConstraintContact
*CONTACT PAIR, INTERACTION=INTConstraintContact,TYPE=SURFACE TO SURFACE
DEPConstraintContact,INDConstraintContact
*SURFACE INTERACTION, NAME=INTConstraintContact
*SURFACE BEHAVIOR,PRESSURE-OVERCLOSURE=LINEAR
1000000.0 
*FRICTION 
0.3,10000.0 

***********************************************************
** Transform Constraints
** written by write_constraints_transform function
** ConstraintTransform
*TRANSFORM, NSET=CylinConstraintTransform, TYPE=C
0.000000,0.000000,-10.500000,0.000000,0.000000,9.500000

***********************************************************
** At least one step is needed to run an CalculiX analysis of FreeCAD
** written by write_step_begin function
*STEP
*STATIC
*DLOAD
Eall,centrif,2270000,0.,0.,0.,0.,0.,1.

***********************************************************
** Displacement constraint applied
** written by write_constraints_displacement function
** ConstraintDisplacement
*BOUNDARY
ConstraintDisplacement,1
ConstraintDisplacement,2
ConstraintDisplacement,3


***********************************************************
** Outputs --> frd file
** written by write_outputs_types function
*NODE FILE
U
*EL FILE
S, E

***********************************************************
** written by write_step_end function
*END STEP 

***********************************************************
** CalculiX Input file
** written by write_footer function
**   written by    --> FreeCAD 0.19.24291 (Git)
**   written on    --> Mon May 24 18:43:42 2021
**   file name     --> Test22.FCStd
**   analysis name --> Analysis
**
**
***********************************************************
**  About units:
**  See ccx manual, ccx does not know about any unit.
**  Golden rule: The user must make sure that the numbers he provides have consistent units.
**  The user is the FreeCAD calculix writer module ;-)
**
**  The unit system which is used at Guido Dhondt's company: mm, N, s, K
**  Since Length and Mass are connected by Force, if Length is mm the Mass is in t to get N
**  The following units are used to write to inp file:
**
**  Length: mm (this includes the mesh geometry)
**  Mass: t
**  TimeSpan: s
**  Temperature: K
**
**  This leads to:
**  Force: N
**  Pressure: N/mm^2
**  Density: t/mm^3
**  Gravity: mm/s^2
**  Thermal conductivity: t*mm/K/s^3 (same as W/m/K)
**  Specific Heat: mm^2/s^2/K (same as J/kg/K)
**
